data/case3.m
function mpc = case3_toy
%CASE2 HW2    Power flow data for 3 bus, 2 generator case.
%   Please see CASEFORMAT for details on the case file format.
%
%   Based on data from Joe H. Chow's book, p. 70.

%   MATPOWER
%   $Id: case2_HW2.m 2408 10/01/2016 $

%% MATPOWER Case Format : Version 2
mpc.version = '2';

%%-----  Power Flow Data  -----%%
%% system MVA base
mpc.baseMVA = 100;

%% bus data
%	bus_i	type	Pd      Qd	Gs	Bs	area	Vm	Va	baseKV	zone	Vmax	Vmin
mpc.bus = [
        1       3       0           0	0	0	1	1	0	345	1	1.1	0.9;
        2       2       0           0	0	0	1	1	0	345	1	1.1	0.9;
        3       1       10           20  0  	0     	1	1	0	345	1	1.1	0.9;

];

%% generator data
%	bus	Pg	Qg	Qmax	Qmin	Vg	mBase	status	Pmax	Pmin	Pc1	Pc2	Qc1min	Qc1max	Qc2min	Qc2max	ramp_agc	ramp_10	ramp_30	ramp_q	apf
mpc.gen = [
        1	0	0	300	-300	1	100	1	250	10	0	0	0	0	0	0	0	0	0	0	0;
        2	0	0	300	-300	1	100	1	250	10	0	0	0	0	0	0	0	0	0	0	0;
];

%% branch data
%	fbus	tbus	r		x	b	rateA	rateB	rateC	ratio	angle	status	angmin	angmax
mpc.branch = [
	1	2	0.01  0.01	0	250	250	250	0	0	1	-360	360;
  2	3	0.01  0.01 0	250	250	250	0	0	1	-360	360;
];

%%-----  OPF Data  -----%%
%% generator cost data
%	1	startup	shutdown	n	x1	y1	...	xn	yn
%	2	startup	shutdown	n	c(n-1)	...	c0
mpc.gencost = [
	1	1500	0	3	0.11	5	150;
    2	1500	0	3	0.11	5	150;
];
